
  -OEChem-03112212263D

 37 39  0     1  0  0  0  0  0999 V2000
    2.2629    3.3449   -6.4912 H   0  0  0  0  0  0  0  0  0  0  0  0
    1.9250    2.4251   -6.0229 C   0  0  0  0  0  0  0  0  0  0  0  0
    0.9456    1.6469   -6.6401 C   0  0  0  0  0  0  0  0  0  0  0  0
    0.5105    0.4665   -6.0376 C   0  0  0  0  0  0  0  0  0  0  0  0
    1.0547    0.0644   -4.8178 C   0  0  0  0  0  0  0  0  0  0  0  0
    2.0341    0.8426   -4.2006 C   0  0  0  0  0  0  0  0  0  0  0  0
    2.4692    2.0230   -4.8031 C   0  0  0  0  0  0  0  0  0  0  0  0
    3.2310    2.6294   -4.3219 H   0  0  0  0  0  0  0  0  0  0  0  0
    2.4639    0.5370   -3.2503 H   0  0  0  0  0  0  0  0  0  0  0  0
    0.5910   -1.1933   -4.1767 C   0  0  2  0  0  0  0  0  0  0  0  0
    1.6599   -2.2996   -4.2370 C   0  0  0  0  0  0  0  0  0  0  0  0
    2.7657   -2.3260   -3.7289 O   0  0  0  0  0  0  0  0  0  0  0  0
    1.1192   -3.3630   -5.0333 N   0  0  0  0  0  0  0  0  0  0  0  0
   -0.0780   -3.0274   -5.4497 C   0  0  0  0  0  0  0  0  0  0  0  0
   -0.4540   -1.8330   -5.0359 N   0  3  0  0  0  0  0  0  0  0  0  0
   -1.3603   -1.4580   -5.2942 H   0  0  0  0  0  0  0  0  0  0  0  0
   -0.6975   -3.6493   -6.0712 H   0  0  0  0  0  0  0  0  0  0  0  0
    1.8169   -4.6040   -5.3256 C   0  0  0  0  0  0  0  0  0  0  0  0
    1.5775   -5.3335   -4.5453 H   0  0  0  0  0  0  0  0  0  0  0  0
    1.4850   -4.9710   -6.3021 H   0  0  0  0  0  0  0  0  0  0  0  0
    2.8934   -4.4055   -5.3413 H   0  0  0  0  0  0  0  0  0  0  0  0
    0.0448   -0.9981   -2.7731 C   0  0  0  0  0  0  0  0  0  0  0  0
   -1.2136   -0.1368   -2.7317 C   0  0  0  0  0  0  0  0  0  0  0  0
   -1.8307   -0.4464   -1.3712 C   0  0  0  0  0  0  0  0  0  0  0  0
   -1.3153   -1.8313   -0.9757 C   0  0  0  0  0  0  0  0  0  0  0  0
   -0.4279   -2.2959   -2.1258 C   0  0  0  0  0  0  0  0  0  0  0  0
   -1.0192   -2.8927   -2.8312 H   0  0  0  0  0  0  0  0  0  0  0  0
    0.4037   -2.9159   -1.7770 H   0  0  0  0  0  0  0  0  0  0  0  0
   -0.7323   -1.7587   -0.0502 H   0  0  0  0  0  0  0  0  0  0  0  0
   -2.1342   -2.5345   -0.7938 H   0  0  0  0  0  0  0  0  0  0  0  0
   -1.5117    0.2950   -0.6295 H   0  0  0  0  0  0  0  0  0  0  0  0
   -2.9241   -0.4157   -1.4148 H   0  0  0  0  0  0  0  0  0  0  0  0
   -0.9935    0.9288   -2.8490 H   0  0  0  0  0  0  0  0  0  0  0  0
   -1.9114   -0.4256   -3.5275 H   0  0  0  0  0  0  0  0  0  0  0  0
    0.8203   -0.5400   -2.1453 H   0  0  0  0  0  0  0  0  0  0  0  0
   -0.2528   -0.1335   -6.5258 H   0  0  0  0  0  0  0  0  0  0  0  0
    0.5209    1.9602   -7.5892 H   0  0  0  0  0  0  0  0  0  0  0  0
  1  2  1  0  0  0  0
  2  7  2  0  0  0  0
  2  3  1  0  0  0  0
  3  4  2  0  0  0  0
  4  5  1  0  0  0  0
  5  6  2  0  0  0  0
  6  7  1  0  0  0  0
  7  8  1  0  0  0  0
  6  9  1  0  0  0  0
  5 10  1  0  0  0  0
 10 15  1  0  0  0  0
 10 11  1  0  0  0  0
 11 12  2  0  0  0  0
 11 13  1  0  0  0  0
 13 14  1  0  0  0  0
 14 15  2  0  0  0  0
 15 16  1  0  0  0  0
 14 17  1  0  0  0  0
 13 18  1  0  0  0  0
 18 19  1  0  0  0  0
 18 20  1  0  0  0  0
 18 21  1  0  0  0  0
 10 22  1  0  0  0  0
 22 26  1  0  0  0  0
 22 23  1  0  0  0  0
 23 24  1  0  0  0  0
 24 25  1  0  0  0  0
 25 26  1  0  0  0  0
 26 27  1  0  0  0  0
 26 28  1  0  0  0  0
 25 29  1  0  0  0  0
 25 30  1  0  0  0  0
 24 31  1  0  0  0  0
 24 32  1  0  0  0  0
 23 33  1  0  0  0  0
 23 34  1  0  0  0  0
 22 35  1  0  0  0  0
  4 36  1  0  0  0  0
  3 37  1  0  0  0  0
M  CHG  1  15   1
M  END
$$$$
