
  -OEChem-10022011503D

  9  8  0     0  0  0  0  0  0999 V2000
    1.0616   -0.2681   -0.0006 C   0  0  0  0  0  0  0  0  0  0  0  0
    1.9101    0.9126   -0.4220 C   0  0  0  0  0  0  0  0  0  0  0  0
    1.5170    1.3236   -1.7228 O   0  0  0  0  0  0  0  0  0  0  0  0
    1.3393   -0.6108    1.0001 H   0  0  0  0  0  0  0  0  0  0  0  0
   -0.0000   -0.0002   -0.0006 H   0  0  0  0  0  0  0  0  0  0  0  0
    1.1801   -1.0990   -0.7040 H   0  0  0  0  0  0  0  0  0  0  0  0
    2.9684    0.6361   -0.4446 H   0  0  0  0  0  0  0  0  0  0  0  0
    1.7730    1.7499    0.2687 H   0  0  0  0  0  0  0  0  0  0  0  0
    2.0787    2.0794   -1.9612 H   0  0  0  0  0  0  0  0  0  0  0  0
  1  2  1  0  0  0  0
  2  3  1  0  0  0  0
  1  4  1  0  0  0  0
  1  5  1  0  0  0  0
  1  6  1  0  0  0  0
  2  7  1  0  0  0  0
  2  8  1  0  0  0  0
  3  9  1  0  0  0  0
M  END
$$$$
