
  -OEChem-09222015413D

  8  7  0     0  0  0  0  0  0999 V2000
    0.8151   -0.5383    0.4928 C   0  0  0  0  0  0  0  0  0  0  0  0
    2.1548   -0.0516   -0.0117 C   0  0  0  0  0  0  0  0  0  0  0  0
    0.0001    0.0007    0.0006 H   0  0  0  0  0  0  0  0  0  0  0  0
    0.6931   -1.6067    0.2906 H   0  0  0  0  0  0  0  0  0  0  0  0
    0.7303   -0.3800    1.5721 H   0  0  0  0  0  0  0  0  0  0  0  0
    2.9698   -0.5906    0.4805 H   0  0  0  0  0  0  0  0  0  0  0  0
    2.2767    1.0166    0.1908 H   0  0  0  0  0  0  0  0  0  0  0  0
    2.2396   -0.2097   -1.0909 H   0  0  0  0  0  0  0  0  0  0  0  0
  1  2  1  0  0  0  0
  1  3  1  0  0  0  0
  1  4  1  0  0  0  0
  1  5  1  0  0  0  0
  2  6  1  0  0  0  0
  2  7  1  0  0  0  0
  2  8  1  0  0  0  0
M  END
$$$$
