
  -OEChem-02092120153D

 22 23  0     0  0  0  0  0  0999 V2000
    1.8851   -1.0363   -0.1124 C   0  0  0  0  0  0  0  0  0  0  0  0
    0.8066   -0.4630    0.5610 C   0  0  0  0  0  0  0  0  0  0  0  0
    2.9210   -1.6309    0.6081 C   0  0  0  0  0  0  0  0  0  0  0  0
    2.3145   -2.1670    6.2160 C   0  0  0  0  0  0  0  0  0  0  0  0
    0.7638   -0.4841    1.9551 C   0  0  0  0  0  0  0  0  0  0  0  0
    2.8783   -1.6520    2.0022 C   0  0  0  0  0  0  0  0  0  0  0  0
    2.3573   -2.1457    4.8220 C   0  0  0  0  0  0  0  0  0  0  0  0
    1.6692   -1.1433    6.9097 C   0  0  0  0  0  0  0  0  0  0  0  0
    1.1096   -0.0768    4.8153 C   0  0  0  0  0  0  0  0  0  0  0  0
    1.7997   -1.0786    2.6757 C   0  0  0  0  0  0  0  0  0  0  0  0
    1.7549   -1.1005    4.1216 C   0  0  0  0  0  0  0  0  0  0  0  0
    1.0668   -0.0982    6.2094 C   0  0  0  0  0  0  0  0  0  0  0  0
    0.2713    1.1647    7.0664 Cl  0  0  0  0  0  0  0  0  0  0  0  0
    1.9174   -1.0212   -1.1979 H   0  0  0  0  0  0  0  0  0  0  0  0
   -0.0009   -0.0015    0.0001 H   0  0  0  0  0  0  0  0  0  0  0  0
    3.7605   -2.0787    0.0844 H   0  0  0  0  0  0  0  0  0  0  0  0
    2.7833   -2.9810    6.7614 H   0  0  0  0  0  0  0  0  0  0  0  0
   -0.0840   -0.0332    2.4655 H   0  0  0  0  0  0  0  0  0  0  0  0
    3.6927   -2.1196    2.5504 H   0  0  0  0  0  0  0  0  0  0  0  0
    2.8640   -2.9513    4.2956 H   0  0  0  0  0  0  0  0  0  0  0  0
    1.6437   -1.1733    7.9961 H   0  0  0  0  0  0  0  0  0  0  0  0
    0.6394    0.7391    4.2700 H   0  0  0  0  0  0  0  0  0  0  0  0
  1  2  1  0  0  0  0
  1  3  2  0  0  0  0
  1 14  1  0  0  0  0
  2  5  2  0  0  0  0
  2 15  1  0  0  0  0
  3  6  1  0  0  0  0
  3 16  1  0  0  0  0
  4  7  2  0  0  0  0
  4  8  1  0  0  0  0
  4 17  1  0  0  0  0
  5 10  1  0  0  0  0
  5 18  1  0  0  0  0
  6 10  2  0  0  0  0
  6 19  1  0  0  0  0
  7 11  1  0  0  0  0
  7 20  1  0  0  0  0
  8 12  2  0  0  0  0
  8 21  1  0  0  0  0
  9 11  2  0  0  0  0
  9 12  1  0  0  0  0
  9 22  1  0  0  0  0
 10 11  1  0  0  0  0
 12 13  1  0  0  0  0
M  END
$$$$
